<?xml version="1.0" encoding="UTF-8"?>

<!-- generated on 2024-05-27 17:07:02 by Eclipse SUMO duarouter Version 1.20.0
<configuration xmlns:xsi="http://www.w3.org/2001/XMLSchema-instance" xsi:noNamespaceSchemaLocation="http://sumo.dlr.de/xsd/duarouterConfiguration.xsd">

    <input>
        <net-file value="sumotest.net.xml"/>
        <route-files value="sumotest.trips.xml"/>
    </input>

    <output>
        <output-file value="sumotest.rou.xml"/>
    </output>

    <report>
        <ignore-errors value="true"/>
    </report>

</configuration>
-->

<routes xmlns:xsi="http://www.w3.org/2001/XMLSchema-instance" xsi:noNamespaceSchemaLocation="http://sumo.dlr.de/xsd/routes_file.xsd">
    <vehicle id="1" depart="1.00">
        <route edges="e16"/>
    </vehicle>
    <vehicle id="2" depart="2.00">
        <route edges="e3 e4 e24 e25 e26"/>
    </vehicle>
    <vehicle id="3" depart="3.00">
        <route edges="e7 e21 e22 e12"/>
    </vehicle>
    <vehicle id="5" depart="5.00">
        <route edges="e15 e16 e9 e22"/>
    </vehicle>
    <vehicle id="9" depart="9.00">
        <route edges="e5 e20 e21 e10"/>
    </vehicle>
    <vehicle id="10" depart="10.00">
        <route edges="e5 e6 e25 e26 e27"/>
    </vehicle>
    <vehicle id="13" depart="13.00">
        <route edges="e11 e12"/>
    </vehicle>
    <vehicle id="14" depart="14.00">
        <route edges="e6 e25"/>
    </vehicle>
    <vehicle id="18" depart="18.00">
        <route edges="e5 e6 e25"/>
    </vehicle>
    <vehicle id="27" depart="27.00">
        <route edges="e25"/>
    </vehicle>
    <vehicle id="33" depart="33.00">
        <route edges="e15 e16 e9 e10"/>
    </vehicle>
    <vehicle id="34" depart="34.00">
        <route edges="e17"/>
    </vehicle>
    <vehicle id="35" depart="35.00">
        <route edges="e15 e7 e8"/>
    </vehicle>
    <vehicle id="38" depart="38.00">
        <route edges="e7 e21"/>
    </vehicle>
    <vehicle id="39" depart="39.00">
        <route edges="e16 e17"/>
    </vehicle>
    <vehicle id="43" depart="43.00">
        <route edges="e9 e22"/>
    </vehicle>
    <vehicle id="44" depart="44.00">
        <route edges="e11"/>
    </vehicle>
    <vehicle id="54" depart="54.00">
        <route edges="e20 e8"/>
    </vehicle>
    <vehicle id="62" depart="62.00">
        <route edges="e1 e18 e19"/>
    </vehicle>
    <vehicle id="63" depart="63.00">
        <route edges="e1 e18 e19 e20 e8"/>
    </vehicle>
    <vehicle id="65" depart="65.00">
        <route edges="e17 e11"/>
    </vehicle>
    <vehicle id="77" depart="77.00">
        <route edges="e13 e14 e15 e16"/>
    </vehicle>
    <vehicle id="78" depart="78.00">
        <route edges="e18 e4 e24"/>
    </vehicle>
    <vehicle id="79" depart="79.00">
        <route edges="e15 e16"/>
    </vehicle>
    <vehicle id="81" depart="81.00">
        <route edges="e15 e7"/>
    </vehicle>
    <vehicle id="83" depart="83.00">
        <route edges="e15 e7 e8 e26"/>
    </vehicle>
    <vehicle id="90" depart="90.00">
        <route edges="e3 e4 e24 e25 e26"/>
    </vehicle>
    <vehicle id="91" depart="91.00">
        <route edges="e9 e22 e12"/>
    </vehicle>
    <vehicle id="94" depart="94.00">
        <route edges="e14 e15 e7 e21"/>
    </vehicle>
    <vehicle id="106" depart="106.00">
        <route edges="e20"/>
    </vehicle>
    <vehicle id="114" depart="114.00">
        <route edges="e13 e14 e15 e16 e9"/>
    </vehicle>
    <vehicle id="116" depart="116.00">
        <route edges="e23 e24 e25 e26"/>
    </vehicle>
    <vehicle id="117" depart="117.00">
        <route edges="e15 e16 e17 e11 e12"/>
    </vehicle>
    <vehicle id="119" depart="119.00">
        <route edges="e23 e24 e25"/>
    </vehicle>
    <vehicle id="120" depart="120.00">
        <route edges="e2 e23 e24"/>
    </vehicle>
    <vehicle id="122" depart="122.00">
        <route edges="e15 e16 e9 e10 e27"/>
    </vehicle>
    <vehicle id="127" depart="127.00">
        <route edges="e9"/>
    </vehicle>
    <vehicle id="132" depart="132.00">
        <route edges="e5 e6 e25 e26 e27"/>
    </vehicle>
    <vehicle id="137" depart="137.00">
        <route edges="e13 e14 e15 e16 e17 e11 e12"/>
    </vehicle>
    <vehicle id="145" depart="145.00">
        <route edges="e1 e18 e4"/>
    </vehicle>
    <vehicle id="152" depart="152.00">
        <route edges="e13 e14"/>
    </vehicle>
    <vehicle id="156" depart="156.00">
        <route edges="e16 e17 e11 e12"/>
    </vehicle>
    <vehicle id="158" depart="158.00">
        <route edges="e2 e23 e24 e25"/>
    </vehicle>
    <vehicle id="159" depart="159.00">
        <route edges="e13 e14 e15 e7 e8"/>
    </vehicle>
    <vehicle id="163" depart="163.00">
        <route edges="e18 e19 e20 e8"/>
    </vehicle>
    <vehicle id="164" depart="164.00">
        <route edges="e5 e6"/>
    </vehicle>
    <vehicle id="167" depart="167.00">
        <route edges="e6"/>
    </vehicle>
    <vehicle id="172" depart="172.00">
        <route edges="e18 e19 e6"/>
    </vehicle>
    <vehicle id="183" depart="183.00">
        <route edges="e16 e9 e10 e27"/>
    </vehicle>
    <vehicle id="184" depart="184.00">
        <route edges="e1 e18 e19 e20 e8"/>
    </vehicle>
    <vehicle id="186" depart="186.00">
        <route edges="e3 e4 e24 e25 e26"/>
    </vehicle>
    <vehicle id="193" depart="193.00">
        <route edges="e13 e3 e19 e20"/>
    </vehicle>
    <vehicle id="194" depart="194.00">
        <route edges="e8 e26"/>
    </vehicle>
    <vehicle id="197" depart="197.00">
        <route edges="e1 e18"/>
    </vehicle>
    <vehicle id="198" depart="198.00">
        <route edges="e2 e23 e24"/>
    </vehicle>
    <vehicle id="207" depart="207.00">
        <route edges="e14 e15 e16 e9 e10"/>
    </vehicle>
    <vehicle id="210" depart="210.00">
        <route edges="e2 e23 e24 e25"/>
    </vehicle>
    <vehicle id="211" depart="211.00">
        <route edges="e14 e15 e16 e9 e10 e27"/>
    </vehicle>
    <vehicle id="214" depart="214.00">
        <route edges="e3 e4"/>
    </vehicle>
    <vehicle id="216" depart="216.00">
        <route edges="e14 e15 e7 e8"/>
    </vehicle>
    <vehicle id="233" depart="233.00">
        <route edges="e15 e16 e9 e10 e27"/>
    </vehicle>
    <vehicle id="235" depart="235.00">
        <route edges="e2 e23"/>
    </vehicle>
    <vehicle id="238" depart="238.00">
        <route edges="e23 e24 e25 e26 e27"/>
    </vehicle>
    <vehicle id="240" depart="240.00">
        <route edges="e19 e20 e21 e10"/>
    </vehicle>
    <vehicle id="245" depart="245.00">
        <route edges="e15 e16"/>
    </vehicle>
    <vehicle id="247" depart="247.00">
        <route edges="e18 e19 e20 e8 e26"/>
    </vehicle>
    <vehicle id="252" depart="252.00">
        <route edges="e1 e2 e23 e24 e25 e26"/>
    </vehicle>
    <vehicle id="253" depart="253.00">
        <route edges="e13 e14 e15 e7 e21"/>
    </vehicle>
    <vehicle id="258" depart="258.00">
        <route edges="e16 e17 e11 e12"/>
    </vehicle>
    <vehicle id="259" depart="259.00">
        <route edges="e1 e2 e23"/>
    </vehicle>
    <vehicle id="265" depart="265.00">
        <route edges="e13 e14 e15 e7 e8 e26"/>
    </vehicle>
    <vehicle id="268" depart="268.00">
        <route edges="e14 e5 e6 e25"/>
    </vehicle>
    <vehicle id="269" depart="269.00">
        <route edges="e3 e19 e20 e21 e22 e12"/>
    </vehicle>
    <vehicle id="277" depart="277.00">
        <route edges="e6 e25"/>
    </vehicle>
    <vehicle id="278" depart="278.00">
        <route edges="e13 e14 e15 e16 e9"/>
    </vehicle>
    <vehicle id="280" depart="280.00">
        <route edges="e2"/>
    </vehicle>
    <vehicle id="288" depart="288.00">
        <route edges="e22"/>
    </vehicle>
    <vehicle id="291" depart="291.00">
        <route edges="e5 e20 e21 e22 e12"/>
    </vehicle>
    <vehicle id="294" depart="294.00">
        <route edges="e19 e20 e21 e10"/>
    </vehicle>
    <vehicle id="299" depart="299.00">
        <route edges="e1 e18 e19 e20 e8"/>
    </vehicle>
    <vehicle id="302" depart="302.00">
        <route edges="e26"/>
    </vehicle>
    <vehicle id="308" depart="308.00">
        <route edges="e3 e19"/>
    </vehicle>
    <vehicle id="311" depart="311.00">
        <route edges="e14 e15 e16 e17 e11 e12"/>
    </vehicle>
    <vehicle id="313" depart="313.00">
        <route edges="e14 e15 e16"/>
    </vehicle>
    <vehicle id="316" depart="316.00">
        <route edges="e17 e11 e12"/>
    </vehicle>
    <vehicle id="317" depart="317.00">
        <route edges="e14 e15 e16"/>
    </vehicle>
    <vehicle id="318" depart="318.00">
        <route edges="e14 e15 e16 e9 e10"/>
    </vehicle>
    <vehicle id="324" depart="324.00">
        <route edges="e20 e21"/>
    </vehicle>
    <vehicle id="325" depart="325.00">
        <route edges="e14 e15 e16 e17 e11"/>
    </vehicle>
    <vehicle id="327" depart="327.00">
        <route edges="e5 e20"/>
    </vehicle>
    <vehicle id="331" depart="331.00">
        <route edges="e9 e22 e12"/>
    </vehicle>
    <vehicle id="332" depart="332.00">
        <route edges="e4 e24 e25"/>
    </vehicle>
    <vehicle id="337" depart="337.00">
        <route edges="e24 e25"/>
    </vehicle>
    <vehicle id="338" depart="338.00">
        <route edges="e3 e19 e20 e8"/>
    </vehicle>
    <vehicle id="339" depart="339.00">
        <route edges="e15 e16"/>
    </vehicle>
    <vehicle id="341" depart="341.00">
        <route edges="e14 e15 e16 e17 e11"/>
    </vehicle>
    <vehicle id="342" depart="342.00">
        <route edges="e1 e18 e19 e20 e21"/>
    </vehicle>
    <vehicle id="344" depart="344.00">
        <route edges="e15 e16 e9 e10 e27"/>
    </vehicle>
    <vehicle id="347" depart="347.00">
        <route edges="e4 e24 e25"/>
    </vehicle>
    <vehicle id="349" depart="349.00">
        <route edges="e2 e23"/>
    </vehicle>
    <vehicle id="353" depart="353.00">
        <route edges="e3 e4 e24"/>
    </vehicle>
    <vehicle id="355" depart="355.00">
        <route edges="e26 e27"/>
    </vehicle>
    <vehicle id="357" depart="357.00">
        <route edges="e21 e22 e12"/>
    </vehicle>
    <vehicle id="358" depart="358.00">
        <route edges="e1 e18 e19 e20"/>
    </vehicle>
    <vehicle id="365" depart="365.00">
        <route edges="e20 e8 e26"/>
    </vehicle>
    <vehicle id="367" depart="367.00">
        <route edges="e23 e24 e25"/>
    </vehicle>
    <vehicle id="368" depart="368.00">
        <route edges="e21 e22 e12"/>
    </vehicle>
    <vehicle id="369" depart="369.00">
        <route edges="e18 e19"/>
    </vehicle>
    <vehicle id="371" depart="371.00">
        <route edges="e18 e19 e20 e21 e10 e27"/>
    </vehicle>
    <vehicle id="380" depart="380.00">
        <route edges="e3 e4 e24 e25"/>
    </vehicle>
    <vehicle id="383" depart="383.00">
        <route edges="e2 e23 e24 e25 e26 e27"/>
    </vehicle>
    <vehicle id="384" depart="384.00">
        <route edges="e13 e14 e15 e16 e9"/>
    </vehicle>
    <vehicle id="387" depart="387.00">
        <route edges="e22 e12"/>
    </vehicle>
    <vehicle id="389" depart="389.00">
        <route edges="e20 e21 e22 e12"/>
    </vehicle>
    <vehicle id="390" depart="390.00">
        <route edges="e5 e20 e21 e22"/>
    </vehicle>
    <vehicle id="396" depart="396.00">
        <route edges="e6"/>
    </vehicle>
    <vehicle id="406" depart="406.00">
        <route edges="e14 e15 e16 e9 e10 e27"/>
    </vehicle>
    <vehicle id="409" depart="409.00">
        <route edges="e3 e4 e24 e25 e26 e27"/>
    </vehicle>
    <vehicle id="412" depart="412.00">
        <route edges="e9 e22"/>
    </vehicle>
    <vehicle id="413" depart="413.00">
        <route edges="e1 e18 e19 e20 e21 e22"/>
    </vehicle>
    <vehicle id="417" depart="417.00">
        <route edges="e3 e19 e20"/>
    </vehicle>
    <vehicle id="420" depart="420.00">
        <route edges="e18 e19 e20 e21 e10 e27"/>
    </vehicle>
    <vehicle id="422" depart="422.00">
        <route edges="e6"/>
    </vehicle>
    <vehicle id="428" depart="428.00">
        <route edges="e3 e19 e20"/>
    </vehicle>
    <vehicle id="436" depart="436.00">
        <route edges="e14 e15 e16 e17 e11"/>
    </vehicle>
    <vehicle id="437" depart="437.00">
        <route edges="e6 e25"/>
    </vehicle>
    <vehicle id="439" depart="439.00">
        <route edges="e13 e14 e15 e7 e21"/>
    </vehicle>
    <vehicle id="440" depart="440.00">
        <route edges="e16 e17"/>
    </vehicle>
    <vehicle id="442" depart="442.00">
        <route edges="e7 e8 e26"/>
    </vehicle>
    <vehicle id="443" depart="443.00">
        <route edges="e13 e14 e15 e7 e21"/>
    </vehicle>
    <vehicle id="444" depart="444.00">
        <route edges="e18 e4 e24"/>
    </vehicle>
    <vehicle id="449" depart="449.00">
        <route edges="e23 e24"/>
    </vehicle>
    <vehicle id="458" depart="458.00">
        <route edges="e24 e25"/>
    </vehicle>
    <vehicle id="464" depart="464.00">
        <route edges="e3 e19 e20 e21 e22 e12"/>
    </vehicle>
    <vehicle id="466" depart="466.00">
        <route edges="e14"/>
    </vehicle>
    <vehicle id="470" depart="470.00">
        <route edges="e5 e20 e21 e22"/>
    </vehicle>
    <vehicle id="472" depart="472.00">
        <route edges="e18 e19 e20 e21 e22 e12"/>
    </vehicle>
    <vehicle id="478" depart="478.00">
        <route edges="e1 e2 e23"/>
    </vehicle>
    <vehicle id="479" depart="479.00">
        <route edges="e20 e8 e26"/>
    </vehicle>
    <vehicle id="481" depart="481.00">
        <route edges="e5 e20 e8"/>
    </vehicle>
    <vehicle id="485" depart="485.00">
        <route edges="e15 e16 e17 e11"/>
    </vehicle>
    <vehicle id="488" depart="488.00">
        <route edges="e13 e14 e15 e7 e8"/>
    </vehicle>
    <vehicle id="491" depart="491.00">
        <route edges="e13 e14 e15 e7 e21"/>
    </vehicle>
    <vehicle id="498" depart="498.00">
        <route edges="e19 e20 e21"/>
    </vehicle>
    <vehicle id="503" depart="503.00">
        <route edges="e14"/>
    </vehicle>
    <vehicle id="505" depart="505.00">
        <route edges="e25 e26"/>
    </vehicle>
    <vehicle id="508" depart="508.00">
        <route edges="e13 e3 e4 e24"/>
    </vehicle>
    <vehicle id="510" depart="510.00">
        <route edges="e15 e16"/>
    </vehicle>
    <vehicle id="512" depart="512.00">
        <route edges="e13 e14 e15 e7"/>
    </vehicle>
    <vehicle id="513" depart="513.00">
        <route edges="e1 e18 e19 e6"/>
    </vehicle>
    <vehicle id="514" depart="514.00">
        <route edges="e13 e14"/>
    </vehicle>
    <vehicle id="517" depart="517.00">
        <route edges="e1 e18 e4"/>
    </vehicle>
    <vehicle id="519" depart="519.00">
        <route edges="e14 e15 e16 e17 e11"/>
    </vehicle>
    <vehicle id="521" depart="521.00">
        <route edges="e3 e19 e20 e21"/>
    </vehicle>
    <vehicle id="528" depart="528.00">
        <route edges="e20"/>
    </vehicle>
    <vehicle id="541" depart="541.00">
        <route edges="e18 e19 e20 e21"/>
    </vehicle>
    <vehicle id="543" depart="543.00">
        <route edges="e2 e23 e24 e25 e26"/>
    </vehicle>
    <vehicle id="546" depart="546.00">
        <route edges="e5 e20 e21 e22 e12"/>
    </vehicle>
    <vehicle id="549" depart="549.00">
        <route edges="e23 e24"/>
    </vehicle>
    <vehicle id="551" depart="551.00">
        <route edges="e18 e19 e20 e8 e26"/>
    </vehicle>
    <vehicle id="552" depart="552.00">
        <route edges="e3 e19 e6"/>
    </vehicle>
    <vehicle id="561" depart="561.00">
        <route edges="e5 e6 e25"/>
    </vehicle>
    <vehicle id="566" depart="566.00">
        <route edges="e18 e19 e20 e21 e10"/>
    </vehicle>
    <vehicle id="573" depart="573.00">
        <route edges="e4 e24"/>
    </vehicle>
    <vehicle id="574" depart="574.00">
        <route edges="e11"/>
    </vehicle>
    <vehicle id="575" depart="575.00">
        <route edges="e13 e3 e4 e24 e25"/>
    </vehicle>
    <vehicle id="579" depart="579.00">
        <route edges="e3 e19 e20 e21 e22 e12"/>
    </vehicle>
    <vehicle id="584" depart="584.00">
        <route edges="e1 e18"/>
    </vehicle>
    <vehicle id="590" depart="590.00">
        <route edges="e5"/>
    </vehicle>
    <vehicle id="592" depart="592.00">
        <route edges="e10"/>
    </vehicle>
    <vehicle id="594" depart="594.00">
        <route edges="e23 e24"/>
    </vehicle>
    <vehicle id="599" depart="599.00">
        <route edges="e7 e21 e22 e12"/>
    </vehicle>
    <vehicle id="601" depart="601.00">
        <route edges="e23"/>
    </vehicle>
    <vehicle id="603" depart="603.00">
        <route edges="e18 e19"/>
    </vehicle>
    <vehicle id="604" depart="604.00">
        <route edges="e14 e15 e16 e9 e22"/>
    </vehicle>
    <vehicle id="609" depart="609.00">
        <route edges="e13 e14 e15"/>
    </vehicle>
    <vehicle id="613" depart="613.00">
        <route edges="e3"/>
    </vehicle>
    <vehicle id="614" depart="614.00">
        <route edges="e20 e8"/>
    </vehicle>
    <vehicle id="615" depart="615.00">
        <route edges="e23 e24 e25"/>
    </vehicle>
    <vehicle id="619" depart="619.00">
        <route edges="e17"/>
    </vehicle>
    <vehicle id="624" depart="624.00">
        <route edges="e6 e25"/>
    </vehicle>
    <vehicle id="625" depart="625.00">
        <route edges="e21"/>
    </vehicle>
    <vehicle id="627" depart="627.00">
        <route edges="e7 e21"/>
    </vehicle>
    <vehicle id="628" depart="628.00">
        <route edges="e5 e6 e25 e26"/>
    </vehicle>
    <vehicle id="629" depart="629.00">
        <route edges="e18 e19 e20 e21"/>
    </vehicle>
    <vehicle id="630" depart="630.00">
        <route edges="e13 e14 e15 e16 e17 e11"/>
    </vehicle>
    <vehicle id="632" depart="632.00">
        <route edges="e18 e19 e20 e21 e10 e27"/>
    </vehicle>
    <vehicle id="635" depart="635.00">
        <route edges="e2 e23"/>
    </vehicle>
    <vehicle id="638" depart="638.00">
        <route edges="e18 e4 e24"/>
    </vehicle>
    <vehicle id="639" depart="639.00">
        <route edges="e4 e24 e25 e26"/>
    </vehicle>
    <vehicle id="642" depart="642.00">
        <route edges="e3 e4 e24 e25 e26"/>
    </vehicle>
    <vehicle id="644" depart="644.00">
        <route edges="e18 e4 e24"/>
    </vehicle>
    <vehicle id="645" depart="645.00">
        <route edges="e13 e3 e19"/>
    </vehicle>
    <vehicle id="646" depart="646.00">
        <route edges="e9 e10 e27"/>
    </vehicle>
    <vehicle id="650" depart="650.00">
        <route edges="e5 e6 e25 e26"/>
    </vehicle>
    <vehicle id="655" depart="655.00">
        <route edges="e14 e15 e16"/>
    </vehicle>
    <vehicle id="661" depart="661.00">
        <route edges="e1 e18 e19"/>
    </vehicle>
    <vehicle id="669" depart="669.00">
        <route edges="e3 e19 e20 e21"/>
    </vehicle>
    <vehicle id="671" depart="671.00">
        <route edges="e5 e20 e21"/>
    </vehicle>
    <vehicle id="685" depart="685.00">
        <route edges="e15 e7 e21"/>
    </vehicle>
    <vehicle id="686" depart="686.00">
        <route edges="e18 e19 e20 e21 e10"/>
    </vehicle>
    <vehicle id="688" depart="688.00">
        <route edges="e15 e16 e9"/>
    </vehicle>
    <vehicle id="689" depart="689.00">
        <route edges="e19 e20 e21 e10"/>
    </vehicle>
    <vehicle id="693" depart="693.00">
        <route edges="e5 e6 e25 e26 e27"/>
    </vehicle>
    <vehicle id="694" depart="694.00">
        <route edges="e13 e14 e15 e16 e9 e10 e27"/>
    </vehicle>
    <vehicle id="695" depart="695.00">
        <route edges="e20 e21 e10"/>
    </vehicle>
    <vehicle id="700" depart="700.00">
        <route edges="e17 e11"/>
    </vehicle>
    <vehicle id="702" depart="702.00">
        <route edges="e20 e21 e22 e12"/>
    </vehicle>
    <vehicle id="704" depart="704.00">
        <route edges="e1 e18 e19 e20 e21 e22"/>
    </vehicle>
    <vehicle id="706" depart="706.00">
        <route edges="e2 e23 e24 e25"/>
    </vehicle>
    <vehicle id="710" depart="710.00">
        <route edges="e22"/>
    </vehicle>
    <vehicle id="712" depart="712.00">
        <route edges="e19 e20 e21"/>
    </vehicle>
    <vehicle id="714" depart="714.00">
        <route edges="e16 e9 e10"/>
    </vehicle>
    <vehicle id="716" depart="716.00">
        <route edges="e3 e4 e24 e25"/>
    </vehicle>
    <vehicle id="721" depart="721.00">
        <route edges="e20 e21 e10 e27"/>
    </vehicle>
    <vehicle id="730" depart="730.00">
        <route edges="e18 e4"/>
    </vehicle>
    <vehicle id="735" depart="735.00">
        <route edges="e9 e22"/>
    </vehicle>
    <vehicle id="743" depart="743.00">
        <route edges="e2 e23 e24 e25 e26 e27"/>
    </vehicle>
    <vehicle id="751" depart="751.00">
        <route edges="e13 e3 e4 e24 e25"/>
    </vehicle>
    <vehicle id="755" depart="755.00">
        <route edges="e23 e24 e25"/>
    </vehicle>
    <vehicle id="758" depart="758.00">
        <route edges="e23"/>
    </vehicle>
    <vehicle id="759" depart="759.00">
        <route edges="e19 e20 e8 e26"/>
    </vehicle>
    <vehicle id="760" depart="760.00">
        <route edges="e16 e17 e11 e12"/>
    </vehicle>
    <vehicle id="761" depart="761.00">
        <route edges="e3 e19 e20 e21 e22"/>
    </vehicle>
    <vehicle id="763" depart="763.00">
        <route edges="e16 e17"/>
    </vehicle>
    <vehicle id="768" depart="768.00">
        <route edges="e7 e21"/>
    </vehicle>
    <vehicle id="773" depart="773.00">
        <route edges="e6 e25 e26 e27"/>
    </vehicle>
    <vehicle id="776" depart="776.00">
        <route edges="e13 e14 e15 e16"/>
    </vehicle>
    <vehicle id="777" depart="777.00">
        <route edges="e13 e3 e4"/>
    </vehicle>
    <vehicle id="778" depart="778.00">
        <route edges="e1 e2 e23"/>
    </vehicle>
    <vehicle id="782" depart="782.00">
        <route edges="e9 e10 e27"/>
    </vehicle>
    <vehicle id="786" depart="786.00">
        <route edges="e20 e21 e10 e27"/>
    </vehicle>
    <vehicle id="787" depart="787.00">
        <route edges="e18 e19 e6"/>
    </vehicle>
    <vehicle id="788" depart="788.00">
        <route edges="e4 e24 e25"/>
    </vehicle>
    <vehicle id="789" depart="789.00">
        <route edges="e14 e15 e16 e9"/>
    </vehicle>
    <vehicle id="792" depart="792.00">
        <route edges="e13 e14 e15"/>
    </vehicle>
    <vehicle id="793" depart="793.00">
        <route edges="e18 e19 e20 e21 e10 e27"/>
    </vehicle>
    <vehicle id="794" depart="794.00">
        <route edges="e18 e19 e20 e8"/>
    </vehicle>
    <vehicle id="807" depart="807.00">
        <route edges="e2 e23 e24 e25"/>
    </vehicle>
    <vehicle id="816" depart="816.00">
        <route edges="e3 e19 e6"/>
    </vehicle>
    <vehicle id="820" depart="820.00">
        <route edges="e16 e17"/>
    </vehicle>
    <vehicle id="822" depart="822.00">
        <route edges="e19 e6 e25"/>
    </vehicle>
    <vehicle id="824" depart="824.00">
        <route edges="e13 e3 e19"/>
    </vehicle>
    <vehicle id="827" depart="827.00">
        <route edges="e21 e22"/>
    </vehicle>
    <vehicle id="836" depart="836.00">
        <route edges="e3 e4"/>
    </vehicle>
    <vehicle id="837" depart="837.00">
        <route edges="e19 e20"/>
    </vehicle>
    <vehicle id="841" depart="841.00">
        <route edges="e16 e9"/>
    </vehicle>
    <vehicle id="846" depart="846.00">
        <route edges="e14 e15 e16 e9 e22"/>
    </vehicle>
    <vehicle id="848" depart="848.00">
        <route edges="e13 e3 e19"/>
    </vehicle>
    <vehicle id="849" depart="849.00">
        <route edges="e20 e21"/>
    </vehicle>
    <vehicle id="851" depart="851.00">
        <route edges="e18 e19 e6 e25"/>
    </vehicle>
    <vehicle id="852" depart="852.00">
        <route edges="e14 e15 e16 e9"/>
    </vehicle>
    <vehicle id="857" depart="857.00">
        <route edges="e19 e20 e8 e26"/>
    </vehicle>
    <vehicle id="862" depart="862.00">
        <route edges="e4"/>
    </vehicle>
    <vehicle id="865" depart="865.00">
        <route edges="e24 e25"/>
    </vehicle>
    <vehicle id="869" depart="869.00">
        <route edges="e1 e18"/>
    </vehicle>
    <vehicle id="870" depart="870.00">
        <route edges="e13 e14 e15 e16 e9 e10 e27"/>
    </vehicle>
    <vehicle id="874" depart="874.00">
        <route edges="e13 e14 e15 e16"/>
    </vehicle>
    <vehicle id="875" depart="875.00">
        <route edges="e18 e19 e20 e8 e26"/>
    </vehicle>
    <vehicle id="877" depart="877.00">
        <route edges="e14 e15 e7"/>
    </vehicle>
    <vehicle id="878" depart="878.00">
        <route edges="e18 e19"/>
    </vehicle>
    <vehicle id="880" depart="880.00">
        <route edges="e25 e26 e27"/>
    </vehicle>
    <vehicle id="883" depart="883.00">
        <route edges="e15 e16 e9"/>
    </vehicle>
    <vehicle id="885" depart="885.00">
        <route edges="e15 e16 e9 e10 e27"/>
    </vehicle>
    <vehicle id="898" depart="898.00">
        <route edges="e24"/>
    </vehicle>
    <vehicle id="907" depart="907.00">
        <route edges="e14 e15 e16 e9"/>
    </vehicle>
    <vehicle id="908" depart="908.00">
        <route edges="e18 e19 e20 e8 e26"/>
    </vehicle>
    <vehicle id="909" depart="909.00">
        <route edges="e7 e21 e22 e12"/>
    </vehicle>
    <vehicle id="910" depart="910.00">
        <route edges="e23"/>
    </vehicle>
    <vehicle id="911" depart="911.00">
        <route edges="e3 e19 e20 e8"/>
    </vehicle>
    <vehicle id="915" depart="915.00">
        <route edges="e19 e20 e21 e22"/>
    </vehicle>
    <vehicle id="918" depart="918.00">
        <route edges="e1 e2 e23 e24"/>
    </vehicle>
    <vehicle id="921" depart="921.00">
        <route edges="e22"/>
    </vehicle>
    <vehicle id="927" depart="927.00">
        <route edges="e4 e24"/>
    </vehicle>
    <vehicle id="930" depart="930.00">
        <route edges="e5 e20 e21 e22"/>
    </vehicle>
    <vehicle id="932" depart="932.00">
        <route edges="e14"/>
    </vehicle>
    <vehicle id="934" depart="934.00">
        <route edges="e16"/>
    </vehicle>
    <vehicle id="935" depart="935.00">
        <route edges="e3 e19 e20 e8"/>
    </vehicle>
    <vehicle id="937" depart="937.00">
        <route edges="e1 e2 e23 e24 e25 e26"/>
    </vehicle>
    <vehicle id="941" depart="941.00">
        <route edges="e7 e8 e26 e27"/>
    </vehicle>
    <vehicle id="942" depart="942.00">
        <route edges="e17 e11 e12"/>
    </vehicle>
    <vehicle id="945" depart="945.00">
        <route edges="e13 e14"/>
    </vehicle>
    <vehicle id="946" depart="946.00">
        <route edges="e3 e4 e24 e25"/>
    </vehicle>
    <vehicle id="947" depart="947.00">
        <route edges="e2 e23"/>
    </vehicle>
    <vehicle id="952" depart="952.00">
        <route edges="e20 e21 e10 e27"/>
    </vehicle>
    <vehicle id="956" depart="956.00">
        <route edges="e13 e3 e19"/>
    </vehicle>
    <vehicle id="957" depart="957.00">
        <route edges="e22 e12"/>
    </vehicle>
    <vehicle id="960" depart="960.00">
        <route edges="e5 e20 e21"/>
    </vehicle>
    <vehicle id="961" depart="961.00">
        <route edges="e21"/>
    </vehicle>
    <vehicle id="965" depart="965.00">
        <route edges="e3 e4 e24"/>
    </vehicle>
    <vehicle id="975" depart="975.00">
        <route edges="e19 e20 e21 e10 e27"/>
    </vehicle>
    <vehicle id="980" depart="980.00">
        <route edges="e15 e16 e9 e10"/>
    </vehicle>
    <vehicle id="981" depart="981.00">
        <route edges="e1 e18"/>
    </vehicle>
    <vehicle id="986" depart="986.00">
        <route edges="e3 e19 e20 e21 e22 e12"/>
    </vehicle>
    <vehicle id="987" depart="987.00">
        <route edges="e5 e20"/>
    </vehicle>
    <vehicle id="991" depart="991.00">
        <route edges="e23 e24 e25 e26 e27"/>
    </vehicle>
    <vehicle id="998" depart="998.00">
        <route edges="e23 e24 e25 e26"/>
    </vehicle>
    <vehicle id="999" depart="999.00">
        <route edges="e18"/>
    </vehicle>
    <vehicle id="1000" depart="1000.00">
        <route edges="e13 e14 e15 e7 e8 e26"/>
    </vehicle>
    <vehicle id="1006" depart="1006.00">
        <route edges="e8 e26"/>
    </vehicle>
    <vehicle id="1015" depart="1015.00">
        <route edges="e16"/>
    </vehicle>
    <vehicle id="1024" depart="1024.00">
        <route edges="e18 e19 e20 e8"/>
    </vehicle>
    <vehicle id="1025" depart="1025.00">
        <route edges="e1 e18 e19 e20 e8"/>
    </vehicle>
    <vehicle id="1026" depart="1026.00">
        <route edges="e9 e22 e12"/>
    </vehicle>
    <vehicle id="1029" depart="1029.00">
        <route edges="e15 e7"/>
    </vehicle>
    <vehicle id="1033" depart="1033.00">
        <route edges="e21 e22"/>
    </vehicle>
    <vehicle id="1037" depart="1037.00">
        <route edges="e2 e23 e24"/>
    </vehicle>
    <vehicle id="1041" depart="1041.00">
        <route edges="e13 e3 e19"/>
    </vehicle>
    <vehicle id="1051" depart="1051.00">
        <route edges="e10"/>
    </vehicle>
    <vehicle id="1055" depart="1055.00">
        <route edges="e15 e16 e9 e10 e27"/>
    </vehicle>
    <vehicle id="1056" depart="1056.00">
        <route edges="e1 e18 e19 e20 e21 e22"/>
    </vehicle>
    <vehicle id="1057" depart="1057.00">
        <route edges="e19 e6 e25"/>
    </vehicle>
    <vehicle id="1058" depart="1058.00">
        <route edges="e25"/>
    </vehicle>
    <vehicle id="1059" depart="1059.00">
        <route edges="e21 e22"/>
    </vehicle>
    <vehicle id="1060" depart="1060.00">
        <route edges="e1 e2 e23"/>
    </vehicle>
    <vehicle id="1061" depart="1061.00">
        <route edges="e1 e2 e23"/>
    </vehicle>
    <vehicle id="1062" depart="1062.00">
        <route edges="e16 e9"/>
    </vehicle>
    <vehicle id="1065" depart="1065.00">
        <route edges="e7 e21 e22 e12"/>
    </vehicle>
    <vehicle id="1070" depart="1070.00">
        <route edges="e2 e23 e24"/>
    </vehicle>
    <vehicle id="1074" depart="1074.00">
        <route edges="e3 e19 e20 e21 e22 e12"/>
    </vehicle>